27
s                      x[A]                      y[A]                      z[A]                      q[e]
N       -2.4849999567815648        0.9879998535571815       -0.5399999820905251        0.5100000000000000
O       -3.0220000330475427       -0.0869999147981237       -0.7520000299370386       -0.5100000000000000
O       -0.6959998475622383        1.8829999806671442        1.1900000389294536       -0.4700000000000000
N       -0.9570001211338582        1.2350002138294136       -0.1500000538226180        0.0700000000000000
N       -0.5730000045150462        1.8780003140186481       -0.9290002945350825        0.0900000000000000
N       -1.3129998819766455        2.6489999239035709        1.3700002093520449        0.3100000000000000
O       -0.1940645884585560        0.2860305964739552       -0.1868683759681518       -0.0749182984314986
N       -0.6882451452615944       -0.9664058754144939        0.8988088486543373        0.0408103416900191
N       -0.5593632105540050       -0.8536004674008778       -1.4342275363089361        0.0410385279047507
O        1.1070251193205602        0.2733160014359538       -0.1300626623126685       -0.0059460251340357
O        2.3721899003124260        0.7566088418856224       -0.1765100187655586       -0.1032375364191074
O        1.7484244624372995        1.6956266491977094       -0.1377427263072785       -0.2895355243987972
N        1.7337978228231030        1.9725080999906275       -0.1475241700065361        0.4335914070974329
O        3.2611676289155049        0.7755903842951198       -0.0987062867297974       -0.3074411742636984
N        4.1309929161299763        1.2347822530901009       -0.0828336946519371        0.9754750808761973
O        4.0137861679920821        1.1353073186309464       -0.0926033408937647       -0.7489186207392725
N        3.5518309807791346       -0.8042570561897010       -0.0260804016336024        0.1132008057126619
N        2.5443530248761803       -0.8300564046937177       -0.0538638896815090        0.1028664749279084
O        2.1669980873820238       -2.6569807110160464       -0.0194746955672944       -0.1817004231589588
N        0.9414422344028630       -3.0165886373090784       -0.0559293392472858        0.1351024703736051
O        3.2256303028578759       -3.1794538284755425        0.0365514914132276       -0.1748011808844129
N        3.0289954573809932       -4.5477354046135039        0.1046429344382698        0.1111684073555323
O        4.5726260740428586       -1.8678947486298132        0.0426009185411238       -0.1270755869415786
O        5.4285424255302166       -1.1175381559119271        0.0436173521956295       -0.3830327016264347
N        5.5929546415349547       -1.0672672394266034        0.0426846114497320        0.4409568130876631
O        4.2801620323462757       -2.7580156750693172        0.0592668588052418       -0.1186539540609551
N        5.3663053724960026       -3.5424145148495070        0.1486832810912906        0.1210506970329793

This file was corrected by hand to remove charges that belong to the capping groups and
correct charge values of the residue backbone that were modified by CHARMM when the
capping groups were added. Note that ordering doesn't matter here.
