12
 generated by VMD
 C        -0.077661       -1.402776        0.000002
 C         1.176039       -0.768599       -0.000033
 C         1.253677        0.634124        0.000024
 C         0.077606        1.402779       -0.000007
 C        -1.176009        0.768644       -0.000019
 C        -1.253651       -0.634172        0.000023
 H        -0.138310       -2.499867       -0.000004
 H         2.095742       -1.369796        0.000006
 H         2.234096        1.130170        0.000038
 H         0.138422        2.499860        0.000023
 H        -2.095802        1.369707       -0.000039
 H        -2.234144       -1.130076        0.000040
